wipe 
model basic -ndm 3 -ndf 6

#nDMaterial ElasticIsotropic $matTag $E $v

nDMaterial ElasticIsotropic 1 432000000 0

nDMaterial PlateFiber 601 1
section PlateFiber 1 601 0.25

node 1 0 0 5.84889
node 2 1.74391 0 5.78799
node 3 3.47933 0 5.60559
node 4 5.19779 0 5.30258
node 5 6.89093 0 4.88043
node 6 8.5505 0 4.3412
node 7 10.1684 0 3.68753
node 8 11.7368 0 2.92258
node 9 13.248 0 2.05009
node 10 14.6946 0 1.07431
node 11 16.0697 0 0
node 12 0 2.5 5.84889
node 13 1.74391 2.5 5.78799
node 14 3.47933 2.5 5.60559
node 15 5.19779 2.5 5.30258
node 16 6.89093 2.5 4.88043
node 17 8.5505 2.5 4.3412
node 18 10.1684 2.5 3.68753
node 19 11.7368 2.5 2.92258
node 20 13.248 2.5 2.05009
# ... 101 like lines cut
element ShellDKGT 1 1 2 12 1
element ShellDKGT 2 2 13 12 1
element ShellDKGT 3 2 3 13 1
element ShellDKGT 4 3 14 13 1
element ShellDKGT 5 3 4 14 1
element ShellDKGT 6 4 15 14 1
element ShellDKGT 7 4 5 15 1
element ShellDKGT 8 5 16 15 1
element ShellDKGT 9 5 6 16 1
element ShellDKGT 10 6 17 16 1
element ShellDKGT 11 6 7 17 1
element ShellDKGT 12 7 18 17 1
element ShellDKGT 13 7 8 18 1
element ShellDKGT 14 8 19 18 1
element ShellDKGT 15 8 9 19 1
element ShellDKGT 16 9 20 19 1
element ShellDKGT 17 9 10 20 1
element ShellDKGT 18 10 21 20 1
element ShellDKGT 19 10 11 21 1
element ShellDKGT 20 11 22 21 1
# ... 180 like lines cut

fixY  0  1 0 1 0 1 0
fixX  0  1 0 0 0 1 1
fixY 25  0 1 0 1 0 1

recorder Node -file disp.txt -time -node 121 -dof 3  disp

pattern Plain 1 Linear {
    load	1	0	0	-98.17477042	0	0	0
    load	2	0	0	-196.3495408	0	0	0
    load	3	0	0	-196.3495408	0	0	0
    load	4	0	0	-196.3495408	0	0	0
    load	5	0	0	-196.3495408	0	0	0
    load	6	0	0	-196.3495408	0	0	0
    load	7	0	0	-196.3495408	0	0	0
    load	8	0	0	-196.3495408	0	0	0
    load	9	0	0	-196.3495408	0	0	0
    load	10	0	0	-196.3495408	0	0	0
    load	11	0	0	-98.17477042	0	0	0
    load	12	0	0	-196.3495408	0	0	0
    load	13	0	0	-392.6990817	0	0	0
    load	14	0	0	-392.6990817	0	0	0
    load	15	0	0	-392.6990817	0	0	0
    load	16	0	0	-392.6990817	0	0	0
    load	17	0	0	-392.6990817	0	0	0
    load	18	0	0	-392.6990817	0	0	0
    load	19	0	0	-392.6990817	0	0	0
    load	20	0	0	-392.6990817	0	0	0
# ... 101 like lines cut
}

export roof10x10.vtk vtk

constraints Plain
test NormDispIncr 1.0e-6 200 
algorithm Newton -count 100
numberer RCM
system SparseGeneral
integrator LoadControl 0.001   
analysis Static    
time {analyze 1000;}



