 #########################################################################################################################
 # Test example for Specimen 26 by Branston et al. (2006) 					  						 #
 # Written: Smail Kechidi, PhD student at University of Blida 1									       #
 # mailto: s_kechidi@univ-blida.com															 #
 # PLEASE CITE THIS WITH:															       #
 # Smail Kechidi and Nouredine Bourahla, Deteriorating hysteresis model for cold-formed steel shear wall panel based on  #
 # its physical and mechanical characteristics. Journal of Thin-Walled Structures. 2016; 421-430. 				 #
 # DOI: 10.1016/j.tws.2015.09.022															 #
 # Description: uniaxial material with user defined shear wall panael's physical and mechanical characteristics          #
 # Date: March 12th 2016 																 #
 # Model subjected to The CUREE Cyclic Loading Protocol 											 #
 # File Name: 32n.tcl 																	 #
 #########################################################################################################################

 
set N 1.
set sec 1.
set meter 1.
set mm [expr $meter/1000.]
set kN [expr $N*1000.]
set U 1.e2
set E [expr 2.03e+11*$N/pow($meter,2)]
set v 0.3
set G [expr $E/(2*(1+$v))]
set A 10000.0; #rigid 
set Abeam 10000.0; #rigid
set Atruss 10000.0; #rigid

 wipe

 # Create the ModelBuilder object

 model BasicBuilder -ndm 2 -ndf 2

 # Add nodes - command: node nodeId xCrd yCrd
 
    set story_Height 2.44
    set bay_Width 2.44
    node 1 0.0 0.0
    node 2 0.0 $story_Height 
    node 3 $bay_Width $story_Height
    node 4 $bay_Width 0.0
    node 5 [expr $bay_Width/2]  [expr $story_Height/2]
    node 6 [expr $bay_Width/2]  [expr $story_Height/2]

 # Procedure for the loading protocol

 # Please keep the follwoing procedures on the same path

 source ProcRCycDAns.tcl 

 # Physical and mechanical characteristics of SWP :

 # Shear Wall Panel's Dimensions :

  set hight 2440.0
  set width 2440.0

 # Characteristics and material properties of the steel framing studs :
  set fuf 344.0
  set tf 1.12
  set Ife 181600.0
  set Ifi 51240.0
  set E 203000.0

 # Characteristics and material properties of sheathing :

  set ts 12.50
  set type 3.0
  set np 1.0

 # Characteristics of the screw fasteners :

  set screw_Spacing 102.0
  set ds 4.064
  set Vs 3256.0
  set nc 98.0

 # Opening parameters
   
  set opening_Area 0.0
  set opening_Length 0.0
  
 # material ID

  set matID 1

  # add the material to domain through the use of a procedure

 uniaxialMaterial CFSWSWP $matID $hight $width $fuf $tf $Ife $Ifi $ts $np $ds $Vs $screw_Spacing $nc $type $opening_Area $opening_Length 

 
 uniaxialMaterial Elastic 2 2.03e+11

 element truss 1 1 2 $Atruss 2
 element truss 2 2 3 $Abeam 2
 element truss 3 1 4 $Abeam 2
 element truss 4 3 4 $Atruss 2
 element truss 5 1 5 $Atruss 2
 element truss 6 4 5 $Atruss 2
 element truss 7 2 6 $Atruss 2
 element truss 8 3 6 $Atruss 2

 element zeroLength 9 5 6 -mat 1 -dir 1


 # set the boundary conditions - command: fix nodeID xResrnt? yRestrnt?

 fix 1 1 1
 fix 4 1 1

 pattern Plain 1 Linear {
 load 2 1 0 
 }

 recorder Node -file x32.out -node 3 -dof 1 disp
 recorder Element -file y32.out -ele 9 localForce

 # build the components for the analysis object
 system BandGeneral
 constraints Plain  
 test NormDispIncr 1.0e-8 20
 algorithm Newton
 numberer RCM

 # analysis type used in the procedure is Static

 set peakpts [list  0.0025    0.0025    0.0025    0.0025    0.0025    0.0025    0.0037    0.0028    0.0028    0.0028    0.0028    0.0028    0.0028	0.0050    0.0037    0.0037    0.0037    0.0037    0.0037    0.0037    0.0106    0.0077    0.0077    0.0077    0.0161    0.0120	0.0120    0.0120    0.0213    0.0161    0.0161    0.0364    0.0275    0.0275    0.0521    0.0390    0.0390    0.0782    0.0585
 set increments 10
 set nodeTag 2
 set dofTag 1

 # start procedure for feeding in Reverse Cyclic loading to the model by Disp. control

 procRCycDAns $increments $nodeTag $dofTag $peakpts
