################################################################
#                                                              #
# p-y spring and beam model for lateral spreading analysis the #
# p-y curve parameters have been reduced to account for the    #
# presence of the weaker liquefied layer                       #
#                                                              #
# Pile parameters:  D = 0.6, E =3e+007, nu =   0.3             #
# Soil parameters:  z =  10, T =   2, phi =  36, gamma =  17   #
#                                                              #
# Created By:  Chris McGann                                    #
#              Pedro Arduino                                   #
#            --University of Washington--                      #
#                                                              #
# ---> Basic units are kN and m                                #
#                                                              #
################################################################

wipe
set outDir ./Output
file mkdir $outDir

#-----------------------------------------------------------------------------------------
#  1. CREATE P-Y SPRING NODES AND BOUNDARY CONDITIONS
#-----------------------------------------------------------------------------------------
model BasicBuilder -ndm 3 -ndf 3

# nodes for soil end of the spring
node  2  0.000 0.000 39.50000
node  3  0.000 0.000 39.00000
node  4  0.000 0.000 38.50000
node  5  0.000 0.000 38.00000
node  6  0.000 0.000 37.50000
node  7  0.000 0.000 37.00000
node  8  0.000 0.000 36.50000
node  9  0.000 0.000 36.00000
node 10  0.000 0.000 35.50000
node 11  0.000 0.000 35.00000
node 12  0.000 0.000 34.50000
node 13  0.000 0.000 34.00000
node 14  0.000 0.000 33.50000
node 15  0.000 0.000 33.00000
node 16  0.000 0.000 32.50000
node 17  0.000 0.000 32.00000
node 18  0.000 0.000 31.50000
node 19  0.000 0.000 31.00000
node 20  0.000 0.000 30.50000
node 21  0.000 0.000 30.00000
# ... 60 like lines cut

# nodes for pile end of the spring
node 202  0.000 0.000 39.50000
node 203  0.000 0.000 39.00000
node 204  0.000 0.000 38.50000
node 205  0.000 0.000 38.00000
node 206  0.000 0.000 37.50000
node 207  0.000 0.000 37.00000
node 208  0.000 0.000 36.50000
node 209  0.000 0.000 36.00000
node 210  0.000 0.000 35.50000
node 211  0.000 0.000 35.00000
node 212  0.000 0.000 34.50000
node 213  0.000 0.000 34.00000
node 214  0.000 0.000 33.50000
node 215  0.000 0.000 33.00000
node 216  0.000 0.000 32.50000
node 217  0.000 0.000 32.00000
node 218  0.000 0.000 31.50000
node 219  0.000 0.000 31.00000
node 220  0.000 0.000 30.50000
node 221  0.000 0.000 30.00000
# ... 60 like lines cut
puts "Finshed creating all p-y spring nodes..."

# define fixities for the soil end of springs
fix 2 1 1 1
fix 3 1 1 1
fix 4 1 1 1
fix 5 1 1 1
fix 6 1 1 1
fix 7 1 1 1
fix 8 1 1 1
fix 9 1 1 1
fix 10 1 1 1
fix 11 1 1 1
fix 12 1 1 1
fix 13 1 1 1
fix 14 1 1 1
fix 15 1 1 1
fix 16 1 1 1
fix 17 1 1 1
fix 18 1 1 1
fix 19 1 1 1
fix 20 1 1 1
fix 21 1 1 1
# ... 60 like lines cut

# define fixities for pile end of springs
fix 202 0 1 1
fix 203 0 1 1
fix 204 0 1 1
fix 205 0 1 1
fix 206 0 1 1
fix 207 0 1 1
fix 208 0 1 1
fix 209 0 1 1
fix 210 0 1 1
fix 211 0 1 1
fix 212 0 1 1
fix 213 0 1 1
fix 214 0 1 1
fix 215 0 1 1
fix 216 0 1 1
fix 217 0 1 1
fix 218 0 1 1
fix 219 0 1 1
fix 220 0 1 1
fix 221 0 1 1
# ... 60 like lines cut
puts "Finished creating all p-y spring boundary conditions..."

#-----------------------------------------------------------------------------------------
#  2. CREATE P-Y SPRING MATERIAL
#-----------------------------------------------------------------------------------------

uniaxialMaterial PySimple1 2 2     23.66983      0.00083 0
uniaxialMaterial PySimple1 3 2     54.93742      0.00136 0
uniaxialMaterial PySimple1 4 2     92.76801      0.00188 0
uniaxialMaterial PySimple1 5 2    136.28632      0.00239 0
uniaxialMaterial PySimple1 6 2    184.72733      0.00290 0
uniaxialMaterial PySimple1 7 2    237.38419      0.00340 0
uniaxialMaterial PySimple1 8 2    293.54190      0.00390 0
uniaxialMaterial PySimple1 9 2    352.37876      0.00438 0
uniaxialMaterial PySimple1 10 2    412.80561      0.00483 0
uniaxialMaterial PySimple1 11 2    473.19086      0.00526 0
uniaxialMaterial PySimple1 12 2    530.88085      0.00562 0
uniaxialMaterial PySimple1 13 2    581.35709      0.00590 0
uniaxialMaterial PySimple1 14 2    616.75420      0.00603 0
uniaxialMaterial PySimple1 15 2    623.25659      0.00594 0
uniaxialMaterial PySimple1 16 2    576.53590      0.00552 0
uniaxialMaterial PySimple1 17 2      9.30787      0.00082 0
uniaxialMaterial PySimple1 18 2     10.10868      0.00086 0
uniaxialMaterial PySimple1 19 2     10.92285      0.00090 0
uniaxialMaterial PySimple1 20 2     11.74934      0.00095 0
uniaxialMaterial PySimple1 21 2     12.58721      0.00099 0
# ... 60 like lines cut
puts "Finished creating all p-y spring materials..."

#-----------------------------------------------------------------------------------------
#  3. CREATE P-Y SPRING ELEMENTS
#-----------------------------------------------------------------------------------------

element zeroLength 2 2 202 -mat 2 -dir 1
element zeroLength 3 3 203 -mat 3 -dir 1
element zeroLength 4 4 204 -mat 4 -dir 1
element zeroLength 5 5 205 -mat 5 -dir 1
element zeroLength 6 6 206 -mat 6 -dir 1
element zeroLength 7 7 207 -mat 7 -dir 1
element zeroLength 8 8 208 -mat 8 -dir 1
element zeroLength 9 9 209 -mat 9 -dir 1
element zeroLength 10 10 210 -mat 10 -dir 1
element zeroLength 11 11 211 -mat 11 -dir 1
element zeroLength 12 12 212 -mat 12 -dir 1
element zeroLength 13 13 213 -mat 13 -dir 1
element zeroLength 14 14 214 -mat 14 -dir 1
element zeroLength 15 15 215 -mat 15 -dir 1
element zeroLength 16 16 216 -mat 16 -dir 1
element zeroLength 17 17 217 -mat 17 -dir 1
element zeroLength 18 18 218 -mat 18 -dir 1
element zeroLength 19 19 219 -mat 19 -dir 1
element zeroLength 20 20 220 -mat 20 -dir 1
element zeroLength 21 21 221 -mat 21 -dir 1
# ... 60 like lines cut
puts "Finished creating all p-y spring elements..."

#-----------------------------------------------------------------------------------------
#  4. CREATE PILE NODES AND BOUNDARY CONDITIONS
#-----------------------------------------------------------------------------------------
model BasicBuilder -ndm 3 -ndf 6

# create nodes
node 501  0.000 0.000 40.00000
node 502  0.000 0.000 39.50000
node 503  0.000 0.000 39.00000
node 504  0.000 0.000 38.50000
node 505  0.000 0.000 38.00000
node 506  0.000 0.000 37.50000
node 507  0.000 0.000 37.00000
node 508  0.000 0.000 36.50000
node 509  0.000 0.000 36.00000
node 510  0.000 0.000 35.50000
node 511  0.000 0.000 35.00000
node 512  0.000 0.000 34.50000
node 513  0.000 0.000 34.00000
node 514  0.000 0.000 33.50000
node 515  0.000 0.000 33.00000
node 516  0.000 0.000 32.50000
node 517  0.000 0.000 32.00000
node 518  0.000 0.000 31.50000
node 519  0.000 0.000 31.00000
node 520  0.000 0.000 30.50000
# ... 61 like lines cut

set nodesInfo6 [open $outDir/NodesInfo6.dat w]
puts $nodesInfo6 "501 0 0 40.00000"
puts $nodesInfo6 "502 0 0 39.50000"
puts $nodesInfo6 "503 0 0 39.00000"
puts $nodesInfo6 "504 0 0 38.50000"
puts $nodesInfo6 "505 0 0 38.00000"
puts $nodesInfo6 "506 0 0 37.50000"
puts $nodesInfo6 "507 0 0 37.00000"
puts $nodesInfo6 "508 0 0 36.50000"
puts $nodesInfo6 "509 0 0 36.00000"
puts $nodesInfo6 "510 0 0 35.50000"
puts $nodesInfo6 "511 0 0 35.00000"
puts $nodesInfo6 "512 0 0 34.50000"
puts $nodesInfo6 "513 0 0 34.00000"
puts $nodesInfo6 "514 0 0 33.50000"
puts $nodesInfo6 "515 0 0 33.00000"
puts $nodesInfo6 "516 0 0 32.50000"
puts $nodesInfo6 "517 0 0 32.00000"
puts $nodesInfo6 "518 0 0 31.50000"
puts $nodesInfo6 "519 0 0 31.00000"
puts $nodesInfo6 "520 0 0 30.50000"
# ... 61 like lines cut
close $nodesInfo6
puts "Finished creating all pile nodes..."

# create geometric transformation for vertical pile
set transTag 1
geomTransf Linear $transTag  0 -1 0

# create the fixities for the pile nodes
fix 501  0 1 0 1 0 1
fix 502  0 1 0 1 0 1
fix 503  0 1 0 1 0 1
fix 504  0 1 0 1 0 1
fix 505  0 1 0 1 0 1
fix 506  0 1 0 1 0 1
fix 507  0 1 0 1 0 1
fix 508  0 1 0 1 0 1
fix 509  0 1 0 1 0 1
fix 510  0 1 0 1 0 1
fix 511  0 1 0 1 0 1
fix 512  0 1 0 1 0 1
fix 513  0 1 0 1 0 1
fix 514  0 1 0 1 0 1
fix 515  0 1 0 1 0 1
fix 516  0 1 0 1 0 1
fix 517  0 1 0 1 0 1
fix 518  0 1 0 1 0 1
fix 519  0 1 0 1 0 1
fix 520  0 1 0 1 0 1
# ... 61 like lines cut
puts "Finished creating all pile boundary conditions..."

# define equalDOF for pile and spring nodes
equalDOF 502 202 1
equalDOF 503 203 1
equalDOF 504 204 1
equalDOF 505 205 1
equalDOF 506 206 1
equalDOF 507 207 1
equalDOF 508 208 1
equalDOF 509 209 1
equalDOF 510 210 1
equalDOF 511 211 1
equalDOF 512 212 1
equalDOF 513 213 1
equalDOF 514 214 1
equalDOF 515 215 1
equalDOF 516 216 1
equalDOF 517 217 1
equalDOF 518 218 1
equalDOF 519 219 1
equalDOF 520 220 1
equalDOF 521 221 1
# ... 60 like lines cut
puts "Finished creating all pile-spring equalDOF..."

#-----------------------------------------------------------------------------------------
#  5. CREATE ELASTIC PILE SECTION
#-----------------------------------------------------------------------------------------

# pile properties
set pi       [expr 4.0*atan(1.0)]
set radius   0.30000
set area     [expr $pi*$radius*$radius]
set I        [expr $pi*$radius*$radius*$radius*$radius/4.0]
set J        [expr 2.0*$I]
set E        30000000.00000
set nu       0.30000
set G        [expr $E/(2.0*(1.0+$nu))]
set nIntPts  3
set secTag   1
set secTag3D 3

# beam section, no torsion
section Elastic  $secTag $E $area $I $I $G $J
# create torsional section
uniaxialMaterial Elastic 100 1.e10
# aggregate the beam section
section Aggregator $secTag3D  100 T -section $secTag
puts "Finished creating all beam materials..."

#-----------------------------------------------------------------------------------------
#  6. CREATE PILE ELEMENTS
#-----------------------------------------------------------------------------------------

element dispBeamColumn 501 501 502 $nIntPts $secTag3D $transTag
element dispBeamColumn 502 502 503 $nIntPts $secTag3D $transTag
element dispBeamColumn 503 503 504 $nIntPts $secTag3D $transTag
element dispBeamColumn 504 504 505 $nIntPts $secTag3D $transTag
element dispBeamColumn 505 505 506 $nIntPts $secTag3D $transTag
element dispBeamColumn 506 506 507 $nIntPts $secTag3D $transTag
element dispBeamColumn 507 507 508 $nIntPts $secTag3D $transTag
element dispBeamColumn 508 508 509 $nIntPts $secTag3D $transTag
element dispBeamColumn 509 509 510 $nIntPts $secTag3D $transTag
element dispBeamColumn 510 510 511 $nIntPts $secTag3D $transTag
element dispBeamColumn 511 511 512 $nIntPts $secTag3D $transTag
element dispBeamColumn 512 512 513 $nIntPts $secTag3D $transTag
element dispBeamColumn 513 513 514 $nIntPts $secTag3D $transTag
element dispBeamColumn 514 514 515 $nIntPts $secTag3D $transTag
element dispBeamColumn 515 515 516 $nIntPts $secTag3D $transTag
element dispBeamColumn 516 516 517 $nIntPts $secTag3D $transTag
element dispBeamColumn 517 517 518 $nIntPts $secTag3D $transTag
element dispBeamColumn 518 518 519 $nIntPts $secTag3D $transTag
element dispBeamColumn 519 519 520 $nIntPts $secTag3D $transTag
element dispBeamColumn 520 520 521 $nIntPts $secTag3D $transTag
# ... 60 like lines cut

set pileInfo [open $outDir/PileInfo.dat w]
puts $pileInfo "501 501 502"
puts $pileInfo "502 502 503"
puts $pileInfo "503 503 504"
puts $pileInfo "504 504 505"
puts $pileInfo "505 505 506"
puts $pileInfo "506 506 507"
puts $pileInfo "507 507 508"
puts $pileInfo "508 508 509"
puts $pileInfo "509 509 510"
puts $pileInfo "510 510 511"
puts $pileInfo "511 511 512"
puts $pileInfo "512 512 513"
puts $pileInfo "513 513 514"
puts $pileInfo "514 514 515"
puts $pileInfo "515 515 516"
puts $pileInfo "516 516 517"
puts $pileInfo "517 517 518"
puts $pileInfo "518 518 519"
puts $pileInfo "519 519 520"
puts $pileInfo "520 520 521"
# ... 60 like lines cut
close $pileInfo
puts "Finished creating all beam elements..."

#-----------------------------------------------------------------------------------------
#  7. CREATE RECORDERS
#-----------------------------------------------------------------------------------------

# create list with pile node info
set nodeList6 {}
set channel [open $outDir/"NodesInfo6.dat" r]
set ctr 0;
foreach line [split [read -nonewline $channel] \n] {
  set ctr0 [expr $ctr+1];
  set lineData($ctr) $line
  set nodeNumber [lindex $lineData($ctr) 0]
  lappend nodeList6 $nodeNumber
}
close $channel

# create pile element list
set BeamElementList {}
set channel [open $outDir/"PileInfo.dat" r]
set ctr 0;
foreach line [split [read -nonewline $channel] \n] {
  set ctr0 [expr $ctr+1];
  set lineData($ctr) $line
  set elementNumber [lindex $lineData($ctr) 0]
  lappend BeamElementList $elementNumber
}
close $channel

# designate recorder timestep
set dt 0.5

recorder Node -file pyDisplace.out -time -nodeRange 202 281 -dof 1 -dT $dt disp
recorder Node -file pyForces.out   -time -nodeRange 2   81 -dof 1 -dT $dt reaction

eval "recorder Node -file Displacements.out -time -node $nodeList6 -dof 1 2 3 -dT $dt disp"
eval "recorder Node -file Reaction.out      -time -node $nodeList6 -dof 1 2 3 -dT $dt reaction "
eval "recorder Element -file globalForces.out    -time -ele $BeamElementList -dT $dt globalForce"

#-----------------------------------------------------------------------------------------
#  8. CREATE APPLIED DISPLACEMENT PROFILE
#-----------------------------------------------------------------------------------------

pattern Plain 10 {Series -time {0 10 10000} -values {0 1 1} -factor 1} {
    sp 2 1  0.300
    sp 3 1  0.300
    sp 4 1  0.300
    sp 5 1  0.300
    sp 6 1  0.300
    sp 7 1  0.300
    sp 8 1  0.300
    sp 9 1  0.300
    sp 10 1  0.300
    sp 11 1  0.300
    sp 12 1  0.300
    sp 13 1  0.300
    sp 14 1  0.300
    sp 15 1  0.300
    sp 16 1  0.300
    sp 17 1  0.225
    sp 18 1  0.150
    sp 19 1  0.075
    sp 20 1  0.000
}
puts "Finished adding all sp constraints for push-over analysis..."

#-----------------------------------------------------------------------------------------
#  8. CREATE AND EXECUTE THE ANALYSIS
#-----------------------------------------------------------------------------------------

integrator  LoadControl 0.05
numberer    RCM
system      BandGeneral
constraints Transformation
test        NormDispIncr 1e-5 20 1
algorithm   Newton
analysis    Static

set startT [clock seconds]

analyze     205

set endT [clock seconds]

puts "Load Application finished..."
puts "Analysis execution time: [expr $endT-$startT] seconds"

wipe
