####################################################################
#  This file was made using the nineFour2Dup problem type in GiD.  #
#  Created by:  Chris McGann and Pedro Arduino                     #
#              -University of Washington-                          #
####################################################################

wipe
set outDir ./Output/
file mkdir $outDir
#-----------------------------------------------------------------------------------------
#  1. CREATE PORE PRESSURE NODES AND FIXITIES
#-----------------------------------------------------------------------------------------
model BasicBuilder -ndm 2 -ndf 3

# define pore pressure nodes:
node        1     544.068    -68.580
node        3     544.068    -64.922
node        5     544.068    -61.265
node        7     544.068    -57.607
node        9     544.068    -53.950
node       11     544.068    -50.292
node       13     544.068    -48.158
node       15     544.068    -46.025
node       17     544.068    -43.891
node       19     544.068    -41.859
node       21     544.068    -39.827
node       26     544.068    -37.795
node       31     544.068    -36.271
node       36     544.068    -34.747
node       42     544.068    -31.699
node       49     544.068    -28.651
node       55     544.068    -25.603
node       62     544.068    -22.555
node       67     544.068    -19.507
node       70     544.068    -17.272
# ... 1005 like lines cut

set ppNodesInfo [open $outDir/nodeInfo.dat w]
puts $ppNodesInfo "       1     544.068    -68.580"
puts $ppNodesInfo "       3     544.068    -64.922"
puts $ppNodesInfo "       5     544.068    -61.265"
puts $ppNodesInfo "       7     544.068    -57.607"
puts $ppNodesInfo "       9     544.068    -53.950"
puts $ppNodesInfo "      11     544.068    -50.292"
puts $ppNodesInfo "      13     544.068    -48.158"
puts $ppNodesInfo "      15     544.068    -46.025"
puts $ppNodesInfo "      17     544.068    -43.891"
puts $ppNodesInfo "      19     544.068    -41.859"
puts $ppNodesInfo "      21     544.068    -39.827"
puts $ppNodesInfo "      26     544.068    -37.795"
puts $ppNodesInfo "      31     544.068    -36.271"
puts $ppNodesInfo "      36     544.068    -34.747"
puts $ppNodesInfo "      42     544.068    -31.699"
puts $ppNodesInfo "      49     544.068    -28.651"
puts $ppNodesInfo "      55     544.068    -25.603"
puts $ppNodesInfo "      62     544.068    -22.555"
puts $ppNodesInfo "      67     544.068    -19.507"
puts $ppNodesInfo "      70     544.068    -17.272"
# ... 1005 like lines cut
close $ppNodesInfo
puts "Finished creating all -ndf 3 nodes..."

# define fixities for pore pressure nodes:
fix     1   0   1   0
fix    78   0   0   1
fix    84   0   1   0
fix   139   0   1   0
fix   210   0   0   1
fix   227   0   1   0
fix   283   0   0   1
fix   321   0   1   0
fix   356   0   0   1
fix   411   0   1   0
fix   436   0   0   1
fix   500   0   1   0
fix   515   0   0   1
fix   589   0   0   1
fix   591   0   1   0
fix   674   0   0   1
fix   678   0   1   0
fix   759   0   0   1
fix   765   0   1   0
fix   843   0   0   1
# ... 167 like lines cut
puts "Finished creating all -ndf 3 boundary conditions..."

# define equal degrees of freedom for pore pressure nodes
equalDOF 3911 3797  1 2
equalDOF 3913 3799  1 2
equalDOF 3915 3801  1 2
equalDOF 3917 3803  1 2
equalDOF 3919 3805  1 2
equalDOF 3921 3807  1 2
equalDOF 3923 3809  1 2
equalDOF 3925 3811  1 2
equalDOF 3927 3813  1 2
equalDOF 3929 3815  1 2
equalDOF 3931 3817  1 2
equalDOF 3933 3819  1 2
equalDOF 3935 3821  1 2
equalDOF 3937 3823  1 2
equalDOF 3939 3825  1 2
equalDOF 3941 3827  1 2
equalDOF 3943 3829  1 2
equalDOF 3945 3831  1 2
equalDOF 3947 3833  1 2
equalDOF 3949 3835  1 2
# ... 9 like lines cut

equalDOF 1 84  1 2
equalDOF 3 86  1 2
equalDOF 5 88  1 2
equalDOF 7 91  1 2
equalDOF 9 94  1 2
equalDOF 11 97  1 2
equalDOF 13 99  1 2
equalDOF 15 101  1 2
equalDOF 17 103  1 2
equalDOF 19 105  1 2
equalDOF 21 111  1 2
equalDOF 26 117  1 2
equalDOF 31 120  1 2
equalDOF 36 124  1 2
equalDOF 42 131  1 2
equalDOF 49 137  1 2
equalDOF 55 152  1 2
equalDOF 62 163  1 2
equalDOF 67 174  1 2
equalDOF 70 187  1 2
equalDOF 74 198  1 2
equalDOF 78 210  1 2
puts "Finished creating equalDOF for pore pressure nodes..."

#-----------------------------------------------------------------------------------------
#  2. CREATE INTERIOR NODES AND FIXITIES
#-----------------------------------------------------------------------------------------
model BasicBuilder -ndm 2 -ndf 2

# define interior nodes
node        2     544.068    -66.751
node        4     544.068    -63.094
node        6     544.068    -59.436
node        8     544.068    -55.778
node       10     544.068    -52.121
node       12     544.068    -49.225
node       14     544.068    -47.092
node       16     544.068    -44.958
node       18     544.068    -42.875
node       20     544.068    -40.843
node       22     544.068    -38.811
node       23     513.588    -68.580
node       24     513.588    -66.751
node       25     513.588    -64.922
node       27     513.588    -63.094
node       28     513.588    -61.265
node       29     544.068    -37.033
node       30     513.588    -59.436
node       32     513.588    -57.607
node       33     513.588    -55.778
# ... 2922 like lines cut
puts "Finished creating all -ndf 2 nodes..."

# define fixities for interior nodes:
fix   107   0   1
fix   179   0   1
fix   274   0   1
fix   365   0   1
fix   456   0   1
fix   545   0   1
fix   634   0   1
fix   721   0   1
fix   808   0   1
fix   895   0   1
fix   983   0   1
fix  1071   0   1
fix  1164   0   1
fix  1261   0   1
fix  1366   0   1
fix  1469   0   1
fix  1580   0   1
fix  1696   0   1
fix  1823   0   1
fix  1952   0   1
# ... 17 like lines cut
puts "Finished creating all -ndf 2 boundary conditions..."

# define equal degrees of freedom which have not yet been defined
equalDOF 3911 3854  1 2
equalDOF 3912 3798  1 2
equalDOF 3912 3855  1 2
equalDOF 3913 3856  1 2
equalDOF 3914 3800  1 2
equalDOF 3914 3857  1 2
equalDOF 3915 3858  1 2
equalDOF 3916 3802  1 2
equalDOF 3916 3859  1 2
equalDOF 3917 3860  1 2
equalDOF 3918 3804  1 2
equalDOF 3918 3861  1 2
equalDOF 3919 3862  1 2
equalDOF 3920 3806  1 2
equalDOF 3920 3863  1 2
equalDOF 3921 3864  1 2
equalDOF 3922 3808  1 2
equalDOF 3922 3865  1 2
equalDOF 3923 3866  1 2
equalDOF 3924 3810  1 2
# ... 65 like lines cut

equalDOF 1 23  1 2
equalDOF 2 24  1 2
equalDOF 2 85  1 2
equalDOF 3 25  1 2
equalDOF 4 27  1 2
equalDOF 4 87  1 2
equalDOF 5 28  1 2
equalDOF 6 30  1 2
equalDOF 6 90  1 2
equalDOF 7 32  1 2
equalDOF 8 33  1 2
equalDOF 8 92  1 2
equalDOF 9 35  1 2
equalDOF 10 37  1 2
equalDOF 10 95  1 2
equalDOF 11 39  1 2
equalDOF 12 40  1 2
equalDOF 12 98  1 2
equalDOF 13 41  1 2
equalDOF 14 43  1 2
# ... 44 like lines cut
puts "Finished creating equalDOF constraints..."

equalDOF 3911 1  1
equalDOF 3911 23  1
equalDOF 3911 84  1
equalDOF 3911 107  1
equalDOF 3911 139  1
equalDOF 3911 179  1
equalDOF 3911 227  1
equalDOF 3911 274  1
equalDOF 3911 321  1
equalDOF 3911 365  1
equalDOF 3911 411  1
equalDOF 3911 456  1
equalDOF 3911 500  1
equalDOF 3911 545  1
equalDOF 3911 591  1
equalDOF 3911 634  1
equalDOF 3911 678  1
equalDOF 3911 721  1
equalDOF 3911 765  1
equalDOF 3911 808  1
# ... 54 like lines cut
puts "Finished creating equalDOF for base..."

#-----------------------------------------------------------------------------------------
#  3. CREATE SOIL MATERIALS
#-----------------------------------------------------------------------------------------

nDMaterial PressureIndependMultiYield 1 2 1.68 14046.9 42140.7 35.9 0.1 0.0 100.0 0.0 30
set thick1 1.0
set xWgt1  0.0
set yWgt1  -9.81
set uBulk1 2.2e5
set hPerm1 1.0e-5
set vPerm1 1.0e-5
nDMaterial PressureIndependMultiYield 2 2 1.68 39020.0 117060.0 183.8 0.1 0.0 100.0 0.0 30
set thick2 1.0
set xWgt2  0.0
set yWgt2  -9.81
set uBulk2 6.0e6
set hPerm2 1.0e-5
set vPerm2 1.0e-5
nDMaterial PressureIndependMultiYield 3 2 1.68 87793.4 263380.0 183.8 0.1 0.0 100.0 0.0 30
set thick3 1.0
set xWgt3  0.0
set yWgt3  -9.81
set uBulk3 6.0e6
set hPerm3 1.0e-5
set vPerm3 1.0e-5
nDMaterial PressureDependMultiYield02 4 2 1.84 42735.4 128206.2 33 0.1 \
                                      100.0 0.5 26 0.067 0.23 0.06 \
                                      0.27 30 5.0 3.0 1.0 \
                                      0.0 0.73 0.9 0.02 0.7 101.0
set thick4 1.0
set xWgt4  0.0
set yWgt4  -9.81
set uBulk4 5.2e6
set hPerm4 1.0e-4
set vPerm4 1.0e-4
nDMaterial PressureDependMultiYield02 5 2 2.24 42735.4 128206.2 40 0.1 \
                                      100.0 0.5 26 0.013 0.0 0.3 \
                                      0.0 30 5.0 3.0 1.0 \
                                      0.0 0.532 0.9 0.02 0.7 101.0
set thick5 1.0
set xWgt5  0.0
set yWgt5  -9.81
set uBulk5 6.3e6
set hPerm5 1.0e-3
set vPerm5 1.0e-3
nDMaterial PressureDependMultiYield02 6 2 2.24 42735.4 128206.2 40 0.1 \
                                      100.0 0.5 26 0.013 0.0 0.3 \
                                      0.0 30 5.0 3.0 1.0 \
                                      0.0 0.49 0.9 0.02 0.7 101.0
set thick6 1.0
set xWgt6  0.0
set yWgt6  -9.81
set uBulk6 6.7e6
set hPerm6 1.0e-3
set vPerm6 1.0e-3
nDMaterial PressureDependMultiYield02 7 2 2.24 42735.4 128206.2 40 0.1 \
                                      100.0 0.5 26 0.013 0.0 0.3 \
                                      0.0 30 5.0 3.0 1.0 \
                                      0.0 0.49 0.9 0.02 0.7 101.0
set thick7 1.0
set xWgt7  0.0
set yWgt7  -9.81
set uBulk7 6.7e6
set hPerm7 1.0e-3
set vPerm7 1.0e-3
nDMaterial PressureIndependMultiYield 8 2 1.68 14046.9 42140.7 35.9 0.1 0.0 100.0 0.0 30
set thick8 10000.0
set xWgt8  .00
set yWgt8  -9.81
set uBulk8 2.2e5
set hPerm8 1.0e-5
set vPerm8 1.0e-5
nDMaterial PressureDependMultiYield02 9 2 1.84 42735.4 128206.2 33 0.1 \
                                      100.0 0.5 26 0.067 0.23 0.06 \
                                      0.27 30 5.0 3.0 1.0 \
                                      0.0 0.73 0.9 0.02 0.7 101.0
set thick9 10000.0
set xWgt9  0.0
set yWgt9  -9.81
set uBulk9 5.2e6
set hPerm9 1.0e-4
set vPerm9 1.0e-4
nDMaterial PressureIndependMultiYield 10 2 1.68 39020.0 117060.0 183.8 0.1 0.0 100.0 0.0 30
set thick10 10000.0
set xWgt10  0.0
set yWgt10  -9.81
set uBulk10 6.0e6
set hPerm10 1.0e-5
set vPerm10 1.0e-5
nDMaterial PressureIndependMultiYield 11 2 1.68 87793.4 263380.0 183.8 0.1 0.0 100.0 0.0 30
set thick11 10000.0
set xWgt11  0.0
set yWgt11  -9.81
set uBulk11 6.0e6
set hPerm11 1.0e-5
set vPerm11 1.0e-5
nDMaterial PressureDependMultiYield02 12 2 2.24 42735.4 128206.2 40 0.1 \
                                      100.0 0.5 26 0.013 0.0 0.3 \
                                      0.0 30 5.0 3.0 1.0 \
                                      0.0 0.532 0.9 0.02 0.7 101.0
set thick12 10000.0
set xWgt12  0.0
set yWgt12  -9.81
set uBulk12 6.3e6
set hPerm12 1.0e-3
set vPerm12 1.0e-3
nDMaterial PressureDependMultiYield02 13 2 2.24 42735.4 128206.2 40 0.1 \
                                      100.0 0.5 26 0.013 0.0 0.3 \
                                      0.0 30 5.0 3.0 1.0 \
                                      0.0 0.49 0.9 0.02 0.7 101.0
set thick13 10000.0
set xWgt13  0.0
set yWgt13  -9.81
set uBulk13 6.7e6
set hPerm13 1.0e-3
set vPerm13 1.0e-3
nDMaterial PressureDependMultiYield02 14 2 2.24 42735.4 128206.2 40 0.1 \
                                      100.0 0.5 26 0.013 0.0 0.3 \
                                      0.0 30 5.0 3.0 1.0 \
                                      0.0 0.49 0.9 0.02 0.7 101.0
set thick14 10000.0
set xWgt14  0.0
set yWgt14  -9.81
set uBulk14 6.7e6
set hPerm14 1.0e-3
set vPerm14 1.0e-3
puts "Finished creating all soil materials..."

#-----------------------------------------------------------------------------------------
#  4. CREATE SOIL ELEMENTS
#-----------------------------------------------------------------------------------------

# permeabilities are initial set at 1.0 m/s for gravity analysis, values are updated after gravity
element 9_4_QuadUP 1 3853 3967 3965 3851 3910 3966 3908 3852 3909 $thick8 8 $uBulk8 1.0 1.0 1.0 $xWgt8 $yWgt8
element 9_4_QuadUP 2 3851 3965 3963 3849 3908 3964 3906 3850 3907 $thick8 8 $uBulk8 1.0 1.0 1.0 $xWgt8 $yWgt8
element 9_4_QuadUP 3 3959 3845 3847 3961 3902 3846 3904 3960 3903 $thick8 8 $uBulk8 1.0 1.0 1.0 $xWgt8 $yWgt8
element 9_4_QuadUP 4 3961 3847 3849 3963 3904 3848 3906 3962 3905 $thick8 8 $uBulk8 1.0 1.0 1.0 $xWgt8 $yWgt8
element 9_4_QuadUP 5 3845 3959 3957 3843 3902 3958 3900 3844 3901 $thick9 9 $uBulk9 1.0 1.0 1.0 $xWgt9 $yWgt9
element 9_4_QuadUP 6 3843 3957 3955 3841 3900 3956 3898 3842 3899 $thick9 9 $uBulk9 1.0 1.0 1.0 $xWgt9 $yWgt9
element 9_4_QuadUP 7 3841 3955 3953 3839 3898 3954 3896 3840 3897 $thick9 9 $uBulk9 1.0 1.0 1.0 $xWgt9 $yWgt9
element 9_4_QuadUP 8 3839 3953 3951 3837 3896 3952 3894 3838 3895 $thick9 9 $uBulk9 1.0 1.0 1.0 $xWgt9 $yWgt9
element 9_4_QuadUP 9 3837 3951 3949 3835 3894 3950 3892 3836 3893 $thick9 9 $uBulk9 1.0 1.0 1.0 $xWgt9 $yWgt9
element 9_4_QuadUP 10 3835 3949 3947 3833 3892 3948 3890 3834 3891 $thick9 9 $uBulk9 1.0 1.0 1.0 $xWgt9 $yWgt9
element 9_4_QuadUP 11 3833 3947 3945 3831 3890 3946 3888 3832 3889 $thick10 10 $uBulk10 1.0 1.0 1.0 $xWgt10 $yWgt10
element 9_4_QuadUP 12 3831 3945 3943 3829 3888 3944 3886 3830 3887 $thick10 10 $uBulk10 1.0 1.0 1.0 $xWgt10 $yWgt10
element 9_4_QuadUP 13 3829 3943 3941 3827 3886 3942 3884 3828 3885 $thick10 10 $uBulk10 1.0 1.0 1.0 $xWgt10 $yWgt10
element 9_4_QuadUP 14 3827 3941 3939 3825 3884 3940 3882 3826 3883 $thick10 10 $uBulk10 1.0 1.0 1.0 $xWgt10 $yWgt10
element 9_4_QuadUP 15 3825 3939 3937 3823 3882 3938 3880 3824 3881 $thick10 10 $uBulk10 1.0 1.0 1.0 $xWgt10 $yWgt10
element 9_4_QuadUP 16 3933 3819 3821 3935 3876 3820 3878 3934 3877 $thick11 11 $uBulk11 1.0 1.0 1.0 $xWgt11 $yWgt11
element 9_4_QuadUP 17 3935 3821 3823 3937 3878 3822 3880 3936 3879 $thick11 11 $uBulk11 1.0 1.0 1.0 $xWgt11 $yWgt11
element 9_4_QuadUP 18 3819 3933 3931 3817 3876 3932 3874 3818 3875 $thick12 12 $uBulk12 1.0 1.0 1.0 $xWgt12 $yWgt12
element 9_4_QuadUP 19 3817 3931 3929 3815 3874 3930 3872 3816 3873 $thick12 12 $uBulk12 1.0 1.0 1.0 $xWgt12 $yWgt12
element 9_4_QuadUP 20 3815 3929 3927 3813 3872 3928 3870 3814 3871 $thick12 12 $uBulk12 1.0 1.0 1.0 $xWgt12 $yWgt12
# ... 939 like lines cut
puts "Finished creating all soil elements..."

#-----------------------------------------------------------------------------------------
#  5. LYSMER DASHPOT
#-----------------------------------------------------------------------------------------

# define dashpot nodes
node     4067     -60.960     -68.580
node     4068     -60.960     -68.580

# define fixities for dashpot nodes
fix 4067  1 1
fix 4068  0 1

# define equal DOF for dashpot and base soil node
equalDOF 3911 4068  1
puts "Finished creating dashpot nodes and boundary conditions..."

# define dashpot material
set baseArea      1219631.1
set dashpotCoeff  1750.00
uniaxialMaterial Viscous 15 [expr $dashpotCoeff*$baseArea] 1

# define dashpot element
element zeroLength 960 4067 4068 -mat 15 -dir 1
puts "Finished creating dashpot material and element..."

#-----------------------------------------------------------------------------------------
#  6. DEFINE NODAL MASSES FOR MODELING WATER
#-----------------------------------------------------------------------------------------

# define nodal masses for 3 dof nodes
model BasicBuilder -ndm 2 -ndf 3
mass       78       0.000      1952305.0   0.000
mass      210       0.000      2342766.0   0.000
mass      283       0.000      78.092      0.000
mass      356       0.000      78.092      0.000
mass      436       0.000      78.092      0.000
mass      515       0.000      78.092      0.000
mass      589       0.000      78.092      0.000
mass      674       0.000      78.092      0.000
mass      759       0.000      78.092      0.000
mass      843       0.000      78.092      0.000
mass      926       0.000      78.092      0.000
mass     1009       0.000      81.951      0.000
mass     1105       10.95      69.301      0.000
mass     1201       8.499      53.824      0.000
mass     1301       6.053      38.354      0.000
mass     1449       3.030      19.177      0.000
puts "Finished creating -ndf 3 nodal masses..."

# define nodal masses for 2 dof nodes
model BasicBuilder -ndm 2 -ndf 2
mass       96       0.000      3904610.0
mass      245       0.000      78.092
mass      316       0.000      78.092
mass      396       0.000      78.092
mass      475       0.000      78.092
mass      554       0.000      78.092
mass      632       0.000      78.092
mass      717       0.000      78.092
mass      801       0.000      78.092
mass      885       0.000      78.092
mass      968       0.000      78.092
mass     1057       12.16      77.043
mass     1153       9.719      61.566
mass     1251       7.279      46.089
mass     1372       4.544      28.762
mass     1517       1.515       9.585
puts "Finished creating -ndf 2 nodal masses..."

#-----------------------------------------------------------------------------------------
#  7. CREATE GRAVITY RECORDERS
#-----------------------------------------------------------------------------------------

# create list for pore pressure nodes
set nodeList3 {}
set channel [open "$outDir/nodeInfo.dat" r]
set count 0;
foreach line [split [read -nonewline $channel] \n] {
set count [expr $count+1];
set lineData($count) $line
set nodeNumber [lindex $lineData($count) 0]
lappend nodeList3 $nodeNumber
}
close $channel

# record nodal displacment, acceleration, and porepressure
eval "recorder Node -file Gdisplacement.out -time -node $nodeList3 -dof 1 2  disp"
eval "recorder Node -file Gacceleration.out -time -node $nodeList3 -dof 1 2  accel"
eval "recorder Node -file GporePressure.out -time -node $nodeList3 -dof 3 vel"
# record elemental stress and strain
recorder Element -file Gstress1.out   -time  -eleRange 1 959  material 1 stress
recorder Element -file Gstress2.out   -time  -eleRange 1 959  material 2 stress
recorder Element -file Gstress3.out   -time  -eleRange 1 959  material 3 stress
recorder Element -file Gstress4.out   -time  -eleRange 1 959  material 4 stress
recorder Element -file Gstress5.out   -time  -eleRange 1 959  material 5 stress
recorder Element -file Gstress6.out   -time  -eleRange 1 959  material 6 stress
recorder Element -file Gstress7.out   -time  -eleRange 1 959  material 7 stress
recorder Element -file Gstress8.out   -time  -eleRange 1 959  material 8 stress
recorder Element -file Gstress9.out   -time  -eleRange 1 959  material 9 stress
recorder Element -file Gstrain1.out   -time  -eleRange 1 959  material 1 strain
recorder Element -file Gstrain2.out   -time  -eleRange 1 959  material 2 strain
recorder Element -file Gstrain3.out   -time  -eleRange 1 959  material 3 strain
recorder Element -file Gstrain4.out   -time  -eleRange 1 959  material 4 strain
recorder Element -file Gstrain5.out   -time  -eleRange 1 959  material 5 strain
recorder Element -file Gstrain6.out   -time  -eleRange 1 959  material 6 strain
recorder Element -file Gstrain7.out   -time  -eleRange 1 959  material 7 strain
recorder Element -file Gstrain8.out   -time  -eleRange 1 959  material 8 strain
recorder Element -file Gstrain9.out   -time  -eleRange 1 959  material 9 strain
puts "Finished creating gravity recorders..."

#-----------------------------------------------------------------------------------------
#  8. CREATE FILES FOR POSTPROCESSING IN GiD
#-----------------------------------------------------------------------------------------

set meshFile [open $dataDir/renameMe.flavia.msh w]
puts $meshFile "MESH 94quad dimension 2 ElemType Quadrilateral Nnode 4"
puts $meshFile "Coordinates"
puts $meshFile "#node_number   coord_x   coord_y"
puts $meshFile "       1     544.068    -68.580"
puts $meshFile "       3     544.068    -64.922"
puts $meshFile "       5     544.068    -61.265"
puts $meshFile "       7     544.068    -57.607"
puts $meshFile "       9     544.068    -53.950"
puts $meshFile "      11     544.068    -50.292"
puts $meshFile "      13     544.068    -48.158"
puts $meshFile "      15     544.068    -46.025"
puts $meshFile "      17     544.068    -43.891"
puts $meshFile "      19     544.068    -41.859"
puts $meshFile "      21     544.068    -39.827"
puts $meshFile "      26     544.068    -37.795"
puts $meshFile "      31     544.068    -36.271"
puts $meshFile "      36     544.068    -34.747"
puts $meshFile "      42     544.068    -31.699"
puts $meshFile "      49     544.068    -28.651"
puts $meshFile "      55     544.068    -25.603"
puts $meshFile "      62     544.068    -22.555"
puts $meshFile "      67     544.068    -19.507"
puts $meshFile "      70     544.068    -17.272"
# ... 1005 like lines cut
puts $meshFile "end coordinates"
puts $meshFile "Elements"
puts $meshFile "# element   node1   node2   node3   node4"
puts $meshFile "       1      3853      3967      3965      3851"
puts $meshFile "       2      3851      3965      3963      3849"
puts $meshFile "       3      3959      3845      3847      3961"
puts $meshFile "       4      3961      3847      3849      3963"
puts $meshFile "       5      3845      3959      3957      3843"
puts $meshFile "       6      3843      3957      3955      3841"
puts $meshFile "       7      3841      3955      3953      3839"
puts $meshFile "       8      3839      3953      3951      3837"
puts $meshFile "       9      3837      3951      3949      3835"
puts $meshFile "      10      3835      3949      3947      3833"
puts $meshFile "      11      3833      3947      3945      3831"
puts $meshFile "      12      3831      3945      3943      3829"
puts $meshFile "      13      3829      3943      3941      3827"
puts $meshFile "      14      3827      3941      3939      3825"
puts $meshFile "      15      3825      3939      3937      3823"
puts $meshFile "      16      3933      3819      3821      3935"
puts $meshFile "      17      3935      3821      3823      3937"
puts $meshFile "      18      3819      3933      3931      3817"
puts $meshFile "      19      3817      3931      3929      3815"
puts $meshFile "      20      3815      3929      3927      3813"
# ... 939 like lines cut
puts $meshFile "end elements"
close $meshFile

set eleFile [open $dataDir/elementInfo.dat w]
puts $eleFile "       1      3853      3967      3965      3851"
puts $eleFile "       2      3851      3965      3963      3849"
puts $eleFile "       3      3959      3845      3847      3961"
puts $eleFile "       4      3961      3847      3849      3963"
puts $eleFile "       5      3845      3959      3957      3843"
puts $eleFile "       6      3843      3957      3955      3841"
puts $eleFile "       7      3841      3955      3953      3839"
puts $eleFile "       8      3839      3953      3951      3837"
puts $eleFile "       9      3837      3951      3949      3835"
puts $eleFile "      10      3835      3949      3947      3833"
puts $eleFile "      11      3833      3947      3945      3831"
puts $eleFile "      12      3831      3945      3943      3829"
puts $eleFile "      13      3829      3943      3941      3827"
puts $eleFile "      14      3827      3941      3939      3825"
puts $eleFile "      15      3825      3939      3937      3823"
puts $eleFile "      16      3933      3819      3821      3935"
puts $eleFile "      17      3935      3821      3823      3937"
puts $eleFile "      18      3819      3933      3931      3817"
puts $eleFile "      19      3817      3931      3929      3815"
puts $eleFile "      20      3815      3929      3927      3813"
# ... 939 like lines cut
close $eleFile

#-----------------------------------------------------------------------------------------
#  9. DEFINE ANALYSIS PARAMETERS
#-----------------------------------------------------------------------------------------

#---GROUND MOTION PARAMETERS
# time step in ground motion record
set motionDT     0.005
# number of steps in ground motion record
set motionSteps  5000

#---RAYLEIGH DAMPING PARAMETERS
set pi      3.141592654
# damping ratio
set damp    0.02
# lower frequency
set omega1  [expr 2*$pi*0.2]
# upper frequency
set omega2  [expr 2*$pi*20]
# damping coefficients
set a0      [expr 2*$damp*$omega1*$omega2/($omega1 + $omega2)]
set a1      [expr 2*$damp/($omega1 + $omega2)]
puts "damping coefficients: a_0 = $a0;  a_1 = $a1"

#---DETERMINE STABLE ANALYSIS TIME STEP USING CFL CONDITION
# maximum shear wave velocity (m/s)
set vsMax       250.0
# element size (m)
set eleSize     3.6576
# duration of ground motion (s)
set duration    [expr $motionDT*$motionSteps]
# trial analysis time step
set kTrial      [expr $eleSize/(pow($vsMax,0.5))]
# define time step and number of steps for analysis
if { $motionDT <= $kTrial } {
    set nSteps  $motionSteps
    set dT      $motionDT
} else {
    set nSteps  [expr int(floor($duration/$kTrial)+1)]
    set dT      [expr $duration/$nSteps]
}
puts "number of steps in analysis: $nSteps"
puts "analysis time step: $dT"

#---ANALYSIS PARAMETERS
# Newmark parameters
set gamma  0.5
set beta   0.25

#-----------------------------------------------------------------------------------------
#  10. GRAVITY ANALYSIS
#-----------------------------------------------------------------------------------------

# update materials to ensure elastic behavior
updateMaterialStage -material 1 -stage 0
updateMaterialStage -material 2 -stage 0
updateMaterialStage -material 3 -stage 0
updateMaterialStage -material 4 -stage 0
updateMaterialStage -material 5 -stage 0
updateMaterialStage -material 6 -stage 0
updateMaterialStage -material 7 -stage 0
updateMaterialStage -material 8 -stage 0
updateMaterialStage -material 9 -stage 0
updateMaterialStage -material 10 -stage 0
updateMaterialStage -material 11 -stage 0
updateMaterialStage -material 12 -stage 0
updateMaterialStage -material 13 -stage 0
updateMaterialStage -material 14 -stage 0

constraints Penalty 1.e18 1.e18
test        NormDispIncr 1e-3 35 1
algorithm   Newton
numberer    RCM
system      ProfileSPD
integrator  Newmark $gamma $beta
analysis    Transient

set startT  [clock seconds]
analyze     10 5.0e2
analyze     10 5.0e3
puts "Finished with elastic gravity analysis..."

# update materials to consider plastic behavior
updateMaterialStage -material 1 -stage 1
updateMaterialStage -material 2 -stage 1
updateMaterialStage -material 3 -stage 1
updateMaterialStage -material 4 -stage 1
updateMaterialStage -material 5 -stage 1
updateMaterialStage -material 6 -stage 1
updateMaterialStage -material 7 -stage 1
updateMaterialStage -material 8 -stage 1
updateMaterialStage -material 9 -stage 1
updateMaterialStage -material 10 -stage 1
updateMaterialStage -material 11 -stage 1
updateMaterialStage -material 12 -stage 1
updateMaterialStage -material 13 -stage 1
updateMaterialStage -material 14 -stage 1

# plastic gravity loading
analyze     10 5.0e-3
puts "Finished with plastic gravity analysis..."

#-----------------------------------------------------------------------------------------
#  11. UPDATE ELEMENT PERMEABILITY VALUES FOR POST-GRAVITY ANALYSIS
#-----------------------------------------------------------------------------------------

# choose base number for parameter IDs which is higer than other tags used in analysis
set ctr 10000.0
# loop over elements to define parameter IDs
for {set i 1} {$i<=959} {incr i 1} {
    parameter [expr int($ctr+1.0)] element $i vPerm
        parameter [expr int($ctr+2.0)] element $i hPerm
        set ctr [expr $ctr+2.0]
}

# update permeability parameters for each element
updateParameter 10001 $vPerm8
updateParameter 10002 $hPerm8
updateParameter 10003 $vPerm8
updateParameter 10004 $hPerm8
updateParameter 10005 $vPerm8
updateParameter 10006 $hPerm8
updateParameter 10007 $vPerm8
updateParameter 10008 $hPerm8
updateParameter 10009 $vPerm9
updateParameter 10010 $hPerm9
updateParameter 10011 $vPerm9
updateParameter 10012 $hPerm9
updateParameter 10013 $vPerm9
updateParameter 10014 $hPerm9
updateParameter 10015 $vPerm9
updateParameter 10016 $hPerm9
updateParameter 10017 $vPerm9
updateParameter 10018 $hPerm9
updateParameter 10019 $vPerm9
updateParameter 10020 $hPerm9
updateParameter 10021 $vPerm10
updateParameter 10022 $hPerm10
updateParameter 10023 $vPerm10
updateParameter 10024 $hPerm10
updateParameter 10025 $vPerm10
updateParameter 10026 $hPerm10
updateParameter 10027 $vPerm10
updateParameter 10028 $hPerm10
updateParameter 10029 $vPerm10
updateParameter 10030 $hPerm10
updateParameter 10031 $vPerm11
updateParameter 10032 $hPerm11
updateParameter 10033 $vPerm11
updateParameter 10034 $hPerm11
updateParameter 10035 $vPerm12
updateParameter 10036 $hPerm12
updateParameter 10037 $vPerm12
updateParameter 10038 $hPerm12
updateParameter 10039 $vPerm12
updateParameter 10040 $hPerm12
# ... 1878 like lines cut

#-----------------------------------------------------------------------------------------
#  12. CREATE POST-GRAVITY RECORDERS
#-----------------------------------------------------------------------------------------

# reset time and analysis
setTime 0.0
wipeAnalysis
remove recorders

# recorder time step
set recDT  [expr 2*$motionDT]

# record nodal displacment, acceleration, and porepressure
eval "recorder Node -file displacement.out -time -dT $recDT -node $nodeList3 -dof 1 2  disp"
eval "recorder Node -file acceleration.out -time -dT $recDT -node $nodeList3 -dof 1 2  accel"
eval "recorder Node -file porePressure.out -time -dT $recDT -node $nodeList3 -dof 3 vel"
# record elemental stress and strain
recorder Element -file stress1.out   -time -dT $recDT  -eleRange 1 959  material 1 stress
recorder Element -file stress2.out   -time -dT $recDT  -eleRange 1 959  material 2 stress
recorder Element -file stress3.out   -time -dT $recDT  -eleRange 1 959  material 3 stress
recorder Element -file stress4.out   -time -dT $recDT  -eleRange 1 959  material 4 stress
recorder Element -file stress5.out   -time -dT $recDT  -eleRange 1 959  material 5 stress
recorder Element -file stress6.out   -time -dT $recDT  -eleRange 1 959  material 6 stress
recorder Element -file stress7.out   -time -dT $recDT  -eleRange 1 959  material 7 stress
recorder Element -file stress8.out   -time -dT $recDT  -eleRange 1 959  material 8 stress
recorder Element -file stress9.out   -time -dT $recDT  -eleRange 1 959  material 9 stress
recorder Element -file strain1.out   -time -dT $recDT  -eleRange 1 959  material 1 strain
recorder Element -file strain2.out   -time -dT $recDT  -eleRange 1 959  material 2 strain
recorder Element -file strain3.out   -time -dT $recDT  -eleRange 1 959  material 3 strain
recorder Element -file strain4.out   -time -dT $recDT  -eleRange 1 959  material 4 strain
recorder Element -file strain5.out   -time -dT $recDT  -eleRange 1 959  material 5 strain
recorder Element -file strain6.out   -time -dT $recDT  -eleRange 1 959  material 6 strain
recorder Element -file strain7.out   -time -dT $recDT  -eleRange 1 959  material 7 strain
recorder Element -file strain8.out   -time -dT $recDT  -eleRange 1 959  material 8 strain
recorder Element -file strain9.out   -time -dT $recDT  -eleRange 1 959  material 9 strain
puts "Finished creating all recorders..."

#-----------------------------------------------------------------------------------------
#  13. DYNAMIC ANALYSIS
#-----------------------------------------------------------------------------------------

model BasicBuilder -ndm 2 -ndf 3

# define constant scaling factor for applied velocity
set cFactor [expr $baseArea*$dashpotCoeff]

# define velocity time history file
set velocityFile velocityHistory.out

# timeseries object for force history
set mSeries "Path -dt $motionDT -filePath $velocityFile -factor $cFactor"

# loading object
pattern Plain 10 $mSeries {
    load 3911 1.0 0.0 0.0
}
puts "Dynamic loading created..."

constraints Penalty 1.e20 1.e20
test        NormDispIncr 1.0e-3 35 1
algorithm   Newton
numberer    RCM
system      ProfileSPD
integrator  Newmark $gamma $beta
rayleigh    $a0 $a1 0.0 0.0
analysis    Transient

# perform analysis with timestep reduction loop
set ok [analyze $nSteps  $dT]

# if analysis fails, reduce timestep and continue with analysis
if {$ok != 0} {
    puts "did not converge, reducing time step"
    set curTime  [getTime]
    puts "curTime: $curTime"
    set curStep  [expr $curTime/$dT]
    puts "curStep: $curStep"
    set remStep  [expr int(($nSteps-$curStep)*2.0)]
    puts "remStep: $remStep"
    set dT       [expr $dT/2.0]
    puts "dT: $dT"

    set ok [analyze  $remStep  $dT]

    # if analysis fails again, reduce timestep and continue with analysis
    if {$ok != 0} {
        puts "did not converge, reducing time step"
        set curTime  [getTime]
        puts "curTime: $curTime"
        set curStep  [expr $curTime/$dT]
        puts "curStep: $curStep"
        set remStep  [expr int(($remStep-$curStep)*2.0)]
        puts "remStep: $remStep"
        set dT       [expr $dT/2.0]
        puts "dT: $dT"

        analyze  $remStep  $dT
    }
}
set endT    [clock seconds]
puts "Finished with dynamic analysis..."
puts "Analysis execution time: [expr $endT-$startT] seconds"

wipe
