wipe 
model basic -ndm 3 -ndf 6

#nDMaterial ElasticIsotropic $matTag $E $v

nDMaterial ElasticIsotropic 1 29000000 0.22

nDMaterial PlateFiber 601 1
section PlateFiber 1 601 0.32

node 1 0 0.55 1
node 2 0 0 1
node 3 0 -0.55 1
node 4 -0.0717894 0.545295 2
node 5 0 0 2
node 6 0.0717894 -0.545295 2
node 7 -0.14235 0.531259 3
node 8 0 0 3
node 9 0.14235 -0.531259 3
node 10 -0.210476 0.508134 4
node 11 0 0 4
node 12 0.210476 -0.508134 4
node 13 -0.275 0.476314 5
node 14 0 0 5
node 15 0.275 -0.476314 5
node 16 -0.334819 0.436344 6
node 17 0 0 6
node 18 0.334819 -0.436344 6
node 19 -0.388909 0.388909 7
node 20 0 0 7
# ... 19 like lines cut
element ShellDKGT 1 1 4 2 1
element ShellDKGT 2 2 4 5 1
element ShellDKGT 3 2 5 3 1
element ShellDKGT 4 3 5 6 1
element ShellDKGT 5 4 7 5 1
element ShellDKGT 6 5 7 8 1
element ShellDKGT 7 5 8 6 1
element ShellDKGT 8 6 8 9 1
element ShellDKGT 9 7 10 8 1
element ShellDKGT 10 8 10 11 1
element ShellDKGT 11 8 11 9 1
element ShellDKGT 12 9 11 12 1
element ShellDKGT 13 10 13 11 1
element ShellDKGT 14 11 13 14 1
element ShellDKGT 15 11 14 12 1
element ShellDKGT 16 12 14 15 1
element ShellDKGT 17 13 16 14 1
element ShellDKGT 18 14 16 17 1
element ShellDKGT 19 14 17 15 1
element ShellDKGT 20 15 17 18 1
# ... 28 like lines cut

fix 1 1 1 1 1 1 1 
fix 2 1 1 1 1 1 1
fix 3 1 1 1 1 1 1

recorder Node -file disp.txt -time -nodeRange 37 39 -dof 1  disp
recorder Node -file disp2.txt -time -nodeRange 37 39 -dof 2  disp;

pattern Plain 1 Linear {
load 38 1 0 0 0 0 0 
load 38 0 0 0 0 0 0 

}

pragma analysis off
export twisted-beam.vtk

constraints Plain
test NormDispIncr 1.0e-6 200 
algorithm Newton -count 100
numberer RCM
system SparseGEN
integrator LoadControl 0.001			
analysis Static				
analyze 1000;	


